14
 energy: -16.877201618513 gnorm: 0.000326086755 xtb: 6.4.1 (025e99ea0bd20707e8cccc6e19fe66a0758c6dd1)
C        -0.16746224009656    1.41750642968177    0.15556357369183
C         1.11463379858188    1.09437898182162    0.28916162005200
C         1.55371916525869   -0.28218735098296    0.17322941274491
C         0.68591034346601   -1.25959425554336   -0.06672464977843
C        -0.78755942789636   -1.04365957906114   -0.23357070905312
C        -1.25338679941058    0.42244356195736   -0.12035939893492
H        -0.49595162262374    2.44440465525345    0.24196228306892
H         1.86172448796911    1.84874511580056    0.48824892897318
H         2.60782218526005   -0.48846090148725    0.28816518851393
H         1.01271724174730   -2.28698762046385   -0.15343234789974
H        -1.30022643417965   -1.65605022278828    0.51561253538499
H        -1.07621375061701   -1.45161061626783   -1.20774880046558
H        -1.75538330243053    0.72613442625293   -1.04504517657564
H        -2.00034364502858    0.51493637582698    0.67493854027769
