22
 energy: -39.787048728075 gnorm: 0.000181968506 xtb: 6.4.1 (025e99ea0bd20707e8cccc6e19fe66a0758c6dd1)
N         4.57526242027026   -0.26202668516798    3.55150094598730
C         3.69782395553925   -0.18979439572696    2.81691772621647
C         2.61395739609838   -0.10422466639648    1.91883129594965
C         2.74048093647956    0.52304963399996    0.67735346514095
C         1.64435480672686    0.57584947897943   -0.15847328418332
C         0.43479752198432    0.00252963032395    0.25371916952630
N         0.33021686540957   -0.59438694553543    1.44484194755510
C         1.36605739052369   -0.64908757309511    2.24452878834005
C        -0.78433258165442    0.00883018360432   -0.56380668900096
C        -1.93581377223745   -0.59484748856655   -0.04928153995440
C        -3.11125993172875   -0.62053476321495   -0.77014302256861
C        -3.13501065703614   -0.03383395132314   -2.02378721153941
C        -2.01460835827435    0.57220859005917   -2.56374015532298
C        -0.84369696013192    0.59083589058301   -1.83095911067450
F        -4.27652143062206   -0.05219108871438   -2.73774301800424
H         3.68535604600640    0.95753409582737    0.38394737885231
H         1.73498782390064    1.05814087202370   -1.11753940876341
H         1.21084254787321   -1.14696551719114    3.19310991178610
H        -1.88379945213371   -1.04266456453434    0.92995988927597
H        -4.00222423628216   -1.08475619779988   -0.37803258483454
H        -2.06850468557534    1.01980746320043   -3.54363594230392
H         0.02163235486424    1.06652799866499   -2.26398455147974
