32
 energy: -53.495407943853 gnorm: 0.000470802377 xtb: 6.4.1 (025e99ea0bd20707e8cccc6e19fe66a0758c6dd1)
C        -4.46846654305478   -0.92554996272507    0.61527146349359
N        -3.68412807164449    0.27632016750336    0.46250768228041
C        -4.37560955519837    1.54264431082616    0.44327184647602
C        -2.33678669644345    0.21314874625699    0.31769553299932
C        -1.57535406654894    1.35712214778109   -0.00253115566414
C        -0.21617807945149    1.29064726722140   -0.14707654489691
C         0.48679065895065    0.08090793454337    0.01725442936366
C        -0.27344642885821   -1.06031735075135    0.33662983512339
C        -1.63381901477763   -0.99814518607469    0.48039567962203
C         1.90430359846499    0.01555393393198   -0.13438539737902
C         2.80601563839695    1.01857829597246   -0.39699809151024
C         2.60812657163411    2.38796864443522   -0.58132049468106
N         2.48899530504720    3.52078219559382   -0.73936588478984
C         4.16994300693526    0.44975018759771   -0.46940577868923
O         5.22346800887514    0.98855563579036   -0.69246890305429
N         4.01405025240176   -0.91095026832972   -0.22888098888933
C         5.10846702587510   -1.84873542045994   -0.21250213286665
C         2.70025368424682   -1.25620852155490   -0.02876034494760
O         2.32339713182378   -2.38586325355512    0.17663791517522
H        -5.52265355360099   -0.68748609509904    0.49666398725540
H        -4.20044741878020   -1.66079401661086   -0.14609961448750
H        -4.32486100972280   -1.37441663081885    1.60318074914203
H        -5.39043502564431    1.40597430936306    0.80909037507288
H        -4.42551005331878    1.95874347314038   -0.56809509902664
H        -3.87748206504423    2.26298190756706    1.09432262127347
H        -2.06030388789597    2.30644382463103   -0.15737865610578
H         0.32524415248402    2.18707041863950   -0.40188563486100
H         0.22739487108206   -2.00403115620363    0.47632661868999
H        -2.16213183491875   -1.90050609080655    0.73982386097653
H         5.60937763883779   -1.83569888025913    0.75760605423790
H         4.70807349312574   -2.84367805118631   -0.40057423630255
H         5.82371426671732   -1.57081251635935   -0.98556169302778
