12
 energy: -22.941090563891 gnorm: 0.000120306272 xtb: 6.4.1 (025e99ea0bd20707e8cccc6e19fe66a0758c6dd1)
C        -0.78941998366015   -1.17462518334631   -0.05997062257335
C         0.53802707442463   -1.30993538695772   -0.03281086165253
C         1.44621825440684   -0.14741165555265    0.02960341133307
O         2.65389086609588   -0.27052349989011    0.05429562390436
C         0.78941773275130    1.17461281838102    0.05996926565164
C        -0.53803238344249    1.30992794746185    0.03281008152145
C        -1.44620773844911    0.14740269526362   -0.02959888608039
O        -2.65387406175033    0.27056680177851   -0.05429710115415
H        -1.45193705121574   -2.02795758971183   -0.10566713597725
H         1.01613921748030   -2.27952176703241   -0.05518812972795
H         1.45192490439891    2.02795989590276    0.10566673431537
H        -1.01614783104004    2.27950392370328    0.05518762043975
