24
 energy: -36.561301833541 gnorm: 0.000125709243 xtb: 6.4.1 (025e99ea0bd20707e8cccc6e19fe66a0758c6dd1)
C        -3.23152882111307    0.58151808212553   -1.22080116078234
C        -3.30784595125684    1.22358275358620    0.00652265327184
C        -2.45429134880160    0.87108617771274    1.03119385175003
C        -1.47622294606698   -0.10461188947173    0.82043591405896
C        -1.40543419789631   -0.75189674309757   -0.41672989958485
C        -2.28902888579628   -0.41404201923076   -1.42202082230513
N        -0.71800681983977   -0.50751752050209    1.91078579758056
N         0.47787966011746   -0.77171114166029    1.89856962595843
C         1.36356335793676   -0.49768257888460    0.86570681987708
C         2.34516859644634   -1.45001370333626    0.57860654853660
C         3.31570230970013   -1.17666971698214   -0.36273703296754
C         3.35106032216213    0.05806187995993   -0.99408469329634
C         2.40343868450645    1.02004353735419   -0.68345732976762
C         1.40553307149127    0.74694424155472    0.23038438214727
H        -3.91042671397621    0.85133074870873   -2.01561407833869
H        -4.04614293576756    1.99541099313366    0.16651721561759
H        -2.50369407075526    1.35926684209947    1.99260936030220
H        -0.67695649251298   -1.53667217755076   -0.56586457935044
H        -2.23598474291027   -0.92593573619889   -2.37169692088578
H         2.30659867876537   -2.40476914411260    1.08062563514316
H         4.05794214497898   -1.92485218071984   -0.59912130202368
H         4.12054925132664    0.27242975981667   -1.72037356683809
H         2.43649360848975    1.98760818324640   -1.16241714861692
H         0.67163624077238    1.49909035244965    0.48434673051336
