21
 energy: -39.530633724940 gnorm: 0.000302314432 xtb: 6.4.1 (025e99ea0bd20707e8cccc6e19fe66a0758c6dd1)
B         0.06455890619318   -1.51011615617438   -0.20757396534720
N         1.26138100864339   -0.54783369123330    0.00603170503800
C         2.53860916336899   -0.88113217156284    0.13513150514402
C         3.32190026708314    0.26745645252052    0.32056978358153
C         2.46380940954384    1.34270122444564    0.30126125403018
C         1.16059227190233    0.82484907137078    0.10193280904175
C        -0.06433876133310    1.46377475082734    0.00052512298890
C        -1.22926265494405    0.74248309628249   -0.20312917391797
N        -1.20962590896680   -0.63294364469466   -0.31041371701100
C        -2.45288220030144   -1.05301425760967   -0.50220932993330
C        -3.33365419432618    0.03820204099801   -0.52771497334920
C        -2.57306695643788    1.16912908499440   -0.34031018729086
F        -0.04353872967740   -2.36621366850111    0.86504018496691
F         0.23851935231996   -2.22305647225042   -1.37163323013024
H         2.84621162230385   -1.90840708002068    0.09166642120387
H         4.38570902428482    0.28325378915702    0.45079483343687
H         2.70677698345552    2.38119465326104    0.41236317120943
H        -0.11149732178504    2.53941310823857    0.08005974910223
H        -2.66940307752808   -2.09826036245556   -0.61327375809119
H        -4.39479539334607   -0.01918683610045   -0.66783014458321
H        -2.90600081045296    2.18770806850728   -0.30167506008950
