25
 energy: -32.624469309284 gnorm: 0.000239337749 xtb: 6.4.1 (025e99ea0bd20707e8cccc6e19fe66a0758c6dd1)
C         2.47673648325708   -0.67858592071564    0.31217618409691
C         2.54187378224720    0.80524258737941   -0.03902320439470
C         1.21175965263504    1.46296673107979    0.08952870448746
C         0.04859937468785    0.81580791842959    0.20906706548409
C        -0.02774308693931   -0.68900684932037    0.26280483571908
C         1.24261253727879   -1.30535378940697   -0.32631537390653
C        -1.28358538992248   -1.20799063871497   -0.43712001626339
C        -2.51858095216254   -0.54004399212683    0.15115852840330
C        -2.47797876337914    0.95690107042503   -0.12743053867460
C        -1.18716110771032    1.62449610670887    0.29708373419137
O        -1.16718114436515    2.78912939629980    0.63629246348918
H         3.38128234443722   -1.18427120988631   -0.03039423478708
H         2.41729188222224   -0.79428237555734    1.39629029035936
H         3.26333698636712    1.32062235634820    0.60002191648447
H         2.88832416592859    0.93178477655512   -1.07100042549985
H         1.19824683619146    2.54447613271393    0.05370643193801
H        -0.09183473390915   -0.97674829064949    1.32163872342960
H         1.26352427810802   -1.12977179322853   -1.40431728536169
H         1.23622136257384   -2.38449313312030   -0.16053570641337
H        -1.22358494764976   -0.99268103327409   -1.50674466664976
H        -1.34332193920680   -2.29172812877648   -0.31596241496653
H        -3.42537601650727   -0.96687270171599   -0.28262026512339
H        -2.55052916510015   -0.71360797327824    1.22924138894700
H        -2.56171725066297    1.12685160031105   -1.20634957766596
H        -3.31121518841948    1.47715915352071    0.34880444267703
