13
 energy: -14.722245846119 gnorm: 0.000190700557 xtb: 6.4.1 (025e99ea0bd20707e8cccc6e19fe66a0758c6dd1)
C         1.88521761621569   -0.05350995235049   -0.81699365468630
C         0.96788958093028    0.62601011075058   -0.13868263416124
C        -0.41438815774764    0.21757732985252    0.07414687767371
C        -1.23816316913788    0.98867662639085    0.78267039260333
C        -0.87276599866205   -1.08002568619044   -0.52144459909072
H         2.88964071434219    0.31840148728826   -0.92894714422181
H         1.67845633177525   -1.00022981296503   -1.28576650493213
H         1.23623069579426    1.57390691873687    0.31126972903869
H        -2.26485334008130    0.71558994910542    0.95844970389978
H        -0.91337649246220    1.92137399400545    1.21271874316633
H        -1.91957465141733   -1.25877006226747   -0.29062308547023
H        -0.28252926264528   -1.90618302483830   -0.12764839890475
H        -0.75178586690397   -1.06281587751824   -1.60359642491467
