17
 energy: -21.972354489442 gnorm: 0.000280144023 xtb: 6.4.1 (025e99ea0bd20707e8cccc6e19fe66a0758c6dd1)
C         0.21251968346111    0.65941072135752   -0.18173108528659
O         0.61363996419703    1.76096712214116   -0.48288750688117
C        -1.24047258106671    0.31835143762205   -0.22811557887362
C        -2.10238614122566    1.30011419126526   -0.48545752006446
C        -1.68392302402991   -1.09101303690885    0.01685538208543
C         1.15201150648823   -0.44094815191874    0.26628155763947
C         2.60088109758230    0.02641406519524    0.29652244676414
H        -3.16620549239858    1.13913945077763   -0.53093312795955
H        -1.74688901619695    2.30228692554493   -0.65746043394397
H        -2.76567229904545   -1.16056370688745   -0.06507938894853
H        -1.39224985235605   -1.42533119943525    1.01097805938817
H        -1.23965508799287   -1.76874720891395   -0.71034353904234
H         1.04251291795747   -1.28828566112741   -0.41453425500852
H         0.84154464785968   -0.77494529518354    1.25927819786464
H         3.25481746522386   -0.77818531213398    0.62372575185394
H         2.70934640870871    0.86804871654378    0.97576504966569
H         2.91017980283373    0.35328594206164   -0.69286500925270
